data_image0
_chemical_formula_structural       Mn3H20C22N2O14
_chemical_formula_sum              "Mn3 H20 C22 N2 O14"
_cell_length_a       5.96595
_cell_length_b       9.37766
_cell_length_c       11.812
_cell_angle_alpha    68.6434
_cell_angle_beta     81.4069
_cell_angle_gamma    76.6939

_space_group_name_H-M_alt    "P 1"
_space_group_IT_number       1

loop_
  _space_group_symop_operation_xyz
  'x, y, z'

loop_
  _atom_site_type_symbol
  _atom_site_label
  _atom_site_symmetry_multiplicity
  _atom_site_fract_x
  _atom_site_fract_y
  _atom_site_fract_z
  _atom_site_occupancy
  Mn  Mn1       1.0  0.50006  0.50129  0.50055  1.0000
  Mn  Mn2       1.0  0.99651  0.84544  0.63494  1.0000
  Mn  Mn3       1.0  0.00603  0.15702  0.36565  1.0000
  H   H1        1.0  0.25629  0.51308  0.11764  1.0000
  H   H2        1.0  0.74562  0.48850  0.88294  1.0000
  H   H3        1.0  0.33984  0.71168  0.91887  1.0000
  H   H4        1.0  0.66303  0.28975  0.08162  1.0000
  H   H5        1.0  0.63455  0.95868  0.93555  1.0000
  H   H6        1.0  0.36796  0.04370  0.06498  1.0000
  H   H7        1.0  0.55712  0.75550  0.12901  1.0000
  H   H8        1.0  0.44644  0.24966  0.87192  1.0000
  H   H9        1.0  0.36014  0.97589  0.85329  1.0000
  H   H10       1.0  0.64250  0.02580  0.14757  1.0000
  H   H11       1.0  0.28112  0.11563  0.71046  1.0000
  H   H12       1.0  0.72113  0.88678  0.29043  1.0000
  H   H13       1.0  0.90002  0.19854  0.79930  1.0000
  H   H14       1.0  0.10283  0.80431  0.20126  1.0000
  H   H15       1.0  0.70319  0.09267  0.78438  1.0000
  H   H16       1.0  0.29995  0.91010  0.21651  1.0000
  H   H17       1.0  0.55133  0.73156  0.57117  1.0000
  H   H18       1.0  0.45062  0.27141  0.42948  1.0000
  H   H19       1.0  0.79886  0.63000  0.56584  1.0000
  H   H20       1.0  0.20301  0.37174  0.43493  1.0000
  C   C1        1.0  0.85289  0.51225  0.26267  1.0000
  C   C2        1.0  0.14868  0.49078  0.73838  1.0000
  C   C3        1.0  0.90177  0.62283  0.13790  1.0000
  C   C4        1.0  0.09960  0.37993  0.86286  1.0000
  C   C5        1.0  0.12069  0.61158  0.07603  1.0000
  C   C6        1.0  0.88101  0.39075  0.92463  1.0000
  C   C7        1.0  0.16701  0.72481  0.96446  1.0000
  C   C8        1.0  0.83520  0.27732  0.03638  1.0000
  C   C9        1.0  0.99436  0.85546  0.91289  1.0000
  C   C10       1.0  0.00871  0.14737  0.08956  1.0000
  C   C11       1.0  0.77279  0.86123  0.97244  1.0000
  C   C12       1.0  0.22989  0.14135  0.02868  1.0000
  C   C13       1.0  0.72835  0.74775  0.08275  1.0000
  C   C14       1.0  0.27434  0.25589  0.91783  1.0000
  C   C15       1.0  0.28132  0.99355  0.76975  1.0000
  C   C16       1.0  0.72130  0.00848  0.23122  1.0000
  C   C17       1.0  0.44026  0.89500  0.70174  1.0000
  C   C18       1.0  0.56363  0.10792  0.29866  1.0000
  C   C19       1.0  0.87885  0.11561  0.75719  1.0000
  C   C20       1.0  0.12421  0.88692  0.24402  1.0000
  C   C21       1.0  0.88486  0.19338  0.62021  1.0000
  C   C22       1.0  0.11750  0.80878  0.38084  1.0000
  N   N1        1.0  0.04321  0.96890  0.79828  1.0000
  N   N2        1.0  0.95972  0.03345  0.20270  1.0000
  O   O1        1.0  0.01156  0.39204  0.30488  1.0000
  O   O2        1.0  0.99016  0.61061  0.69587  1.0000
  O   O3        1.0  0.66165  0.54348  0.31882  1.0000
  O   O4        1.0  0.34123  0.46064  0.68226  1.0000
  O   O5        1.0  0.65349  0.89735  0.69559  1.0000
  O   O6        1.0  0.34956  0.10695  0.30403  1.0000
  O   O7        1.0  0.35552  0.81721  0.65538  1.0000
  O   O8        1.0  0.64836  0.18562  0.34554  1.0000
  O   O9        1.0  0.97254  0.10517  0.55568  1.0000
  O   O10       1.0  0.03387  0.89679  0.44532  1.0000
  O   O11       1.0  0.80214  0.33652  0.57715  1.0000
  O   O12       1.0  0.19758  0.66483  0.42337  1.0000
  O   O13       1.0  0.66007  0.67648  0.52076  1.0000
  O   O14       1.0  0.34231  0.32559  0.48019  1.0000
