data_image0
_chemical_formula_structural       Zn4Cu2Au2
_chemical_formula_sum              "Zn4 Cu2 Au2"
_cell_length_a       4.510365715229501
_cell_length_b       4.75425996602626
_cell_length_c       5.64529956386415
_cell_angle_alpha    90.0000049171866
_cell_angle_beta     90.00000168391341
_cell_angle_gamma    90.00000442550305

_space_group_name_H-M_alt    "P 1"
_space_group_IT_number       1

loop_
  _space_group_symop_operation_xyz
  'x, y, z'

loop_
  _atom_site_type_symbol
  _atom_site_label
  _atom_site_symmetry_multiplicity
  _atom_site_fract_x
  _atom_site_fract_y
  _atom_site_fract_z
  _atom_site_occupancy
  Zn  Zn1       1.0  0.4999999662793186  0.1812506652427857  0.7488346448786629  1.0000
  Zn  Zn2       1.0  0.49999997716438566  0.18125065637855192  0.25116552521763674  1.0000
  Zn  Zn3       1.0  5.186467430000001e-08  0.8187497814439908  0.24883539442176783  1.0000
  Zn  Zn4       1.0  3.5031298799999994e-08  0.8187497512088342  0.7511644655384656  1.0000
  Cu  Cu1       1.0  0.9999999829129605  0.3144566616438169  0.4999999365052119  1.0000
  Cu  Cu2       1.0  0.5000000123969031  0.6855445192931242  6.42284377e-08  1.0000
  Au  Au1       1.0  0.499999999632152  0.677199782791753  0.4999999555778558  1.0000
  Au  Au2       1.0  0.9999999747183067  0.3227981819971362  1.36319755e-08  1.0000
